<?xml version="1.0" encoding="UTF-8"?>

<!-- generated on 2022-02-18 08:07:29 by Eclipse SUMO GUI Version 1.12.0
<configuration xmlns:xsi="http://www.w3.org/2001/XMLSchema-instance" xsi:noNamespaceSchemaLocation="http://sumo.dlr.de/xsd/sumoConfiguration.xsd">

    <input>
        <net-file value="E:\博士\实验室课题\re-routing\睦昆的code\code\ZonePBDVR+_1cost\data\01\Tainan.net.xml"/>
        <route-files value="E:\博士\实验室课题\re-routing\睦昆的code\code\ZonePBDVR+_1cost\data\01\od_route_file.odtrips1.rou.xml"/>
        <additional-files value="E:\博士\实验室课题\re-routing\睦昆的code\code\ZonePBDVR+_1cost\data\01\Tainan.det.xml"/>
    </input>

    <output>
        <tripinfo-output value="E:\博士\实验室课题\re-routing\睦昆的code\code\ZonePBDVR+_1cost\data\01\noretripinfo01.xml"/>
    </output>

    <time>
        <begin value="0"/>
    </time>

</configuration>
