<additional>

<tazs>
   <!-- odd and even id have different direction -->
   <!--Left: 13、Bottom:9、Top:10、Right:7-->
   <!--left top-->
   <taz id="1" edges="-306997496#1 -303889712#6 -571719005#1 158895309#2 158782352#4">
   </taz>
   <taz id="2" edges="306997496#0 303889712#5 571719005#0 306997493#0 -158782352#5">
   </taz>
   <!--left middel-->
   <taz id="3" edges="-41389166#7 302240826#4 -496332203#2 -161010072#5">
   </taz>
   <taz id="4" edges="41389166#5 -302240826#6 496332203#0 161010072#3">
   </taz>
   <!--left bottom-->
   <taz id="5" edges="-496339475#2 -496339476#3 -41963902#10 -496253677#23">
   </taz>
   <taz id="6" edges="496339475#0 496339476#0 41963902#7 496253677#22">
   </taz>
    <!--bottom left-->
   <taz id="7" edges="228022815#0 -521131212#2 -24452782#8 -286094870#18">
   </taz>
   <taz id="8" edges="286847309#10 521131212#2 24452782#7 286094870#15">
   </taz>
   <!--bottom right-->
   <taz id="9" edges="-24452786#9 159307912 499302825#0 496253674#0 227913938#0">
   </taz>
   <taz id="10" edges="24452786#7 27067557#0 -499302825#3 -496253674#1 -227913938#6">
   </taz>
   <!--top left-->
   <taz id="11" edges="306997515#4 gneE5 315886539#2 -158995079#1 -158783758#6">
   </taz>
   <taz id="12" edges="162442431#0 -gneE5 297757252#0 158995079#0 158783758#2">
   </taz>
   <!--top right-->
   <taz id="13" edges="-279365144#3 -81509011#2 556031052#1 72871334#1 228022792#0">
   </taz>
   <taz id="14" edges="279365144#1 81509011#0 -556031052#2 -72871334#3 -228022792#1">
   </taz>
   <!--right top-->
   <taz id="15" edges="297757244#1 -152086640#0 71285598#7 -41389169#13 -31794904#2">
   </taz>
   <taz id="16" edges="159315419 152086640#0 -71285598#7 41389169#12 31794904#1">
   </taz>
   <!--right bottom-->
   <taz id="17" edges="-160253722#3 160913587">
   </taz>
   <taz id="18" edges="160253722#1 -160913587">
   </taz>
</tazs>

</additional>